%chk=C:\Users\Althea\Documents\Senior Year\Thesis\Individual Force Fields\alkenes\2,3-dimethyl-2-butene\dm-2-butene.chk
# opt=calcfc pbe1pbe/def2tzvpp

11250

0 1
 C                 -0.67740000    0.00000000   -0.00050000
 C                  0.67720000    0.00000000    0.00020000
 C                 -1.51670000    1.25410000   -0.00010000
 C                 -1.51630000   -1.25460000    0.00040000
 C                  1.51700000   -1.25400000   -0.00020000
 C                  1.51620000    1.25450000    0.00020000
 H                 -2.36200000    1.14010000   -0.68870000
 H                 -1.91580000    1.43990000    1.00210000
 H                 -0.97940000    2.14450000   -0.33290000
 H                 -1.91600000   -1.44110000   -1.00150000
 H                 -0.97830000   -2.14460000    0.33320000
 H                 -2.36110000   -1.14070000    0.68960000
 H                  1.91690000   -1.43980000    1.00160000
 H                  2.36160000   -1.13980000   -0.68960000
 H                  0.97950000   -2.14450000   -0.33260000
 H                  2.36110000    1.14090000    0.68930000
 H                  1.91580000    1.44040000   -1.00180000
 H                  0.97840000    2.14480000    0.33270000

 1 2 2.0 3 1.0 4 1.0
 2 5 1.0 6 1.0
 3 7 1.0 8 1.0 9 1.0
 4 10 1.0 11 1.0 12 1.0
 5 13 1.0 14 1.0 15 1.0
 6 16 1.0 17 1.0 18 1.0
 7
 8
 9
 10
 11
 12
 13
 14
 15
 16
 17
 18

